          77
Pd-xantphos                            
Pd      0.00000   0.00000   0.00000
Cl      1.58397  -0.20087   1.74046
Cl     -1.58397   0.20087   1.74046
P      -1.91192   0.49301  -1.33175
C      -2.19363   0.05669  -3.13043
C      -3.43687  -0.37933  -3.62369
C      -3.58790  -0.70924  -4.97311
C      -2.50517  -0.61863  -5.85478
C      -1.25619  -0.17296  -5.40588
C      -1.14431   0.16338  -4.04763
O       0.07543   0.59469  -3.54797
C      -0.00212  -0.01662  -6.27642
C       0.18897   1.48988  -6.62088
C      -0.10346  -0.81556  -7.58492
C      -2.15571   2.34125  -1.34160
C      -2.67459   3.00608  -2.46611
C      -2.85326   4.39382  -2.44547
C      -2.51746   5.12909  -1.30450
C      -2.00220   4.47055  -0.18258
C      -1.81432   3.08535  -0.19788
C      -3.48215  -0.21237  -0.63234
C      -4.61495   0.57976  -0.40473
C      -5.85767  -1.38608   0.28792
C      -5.79813  -0.00840   0.05958
C      -4.72599  -2.17888   0.05713
C      -3.54185  -1.59610  -0.39755
H      -4.28401  -0.47425  -2.94506
H      -2.64025  -0.89852  -6.90075
H      -4.55800  -1.05315  -5.33739
H       0.26693   2.10457  -5.71374
H      -0.66600   1.85293  -7.21159
H      -0.23990  -1.89127  -7.39929
H      -0.94679  -0.45732  -8.19289
H      -4.57366   1.65673  -0.57645
H      -6.78029  -1.84203   0.65374
H      -6.67377   0.61753   0.24617
H      -4.76143  -3.25405   0.24603
H      -2.65362  -2.21392  -0.54908
H      -2.94344   2.44310  -3.36132
H      -3.25616   4.89856  -3.32660
H      -2.65667   6.21249  -1.28979
H      -1.73786   5.03660   0.71336
H      -1.42145   2.57239   0.68260
P       1.97446   0.00000  -1.33175
C       2.13832  -0.49279  -3.13044
C       3.23331  -1.22542  -3.62371
C       3.29718  -1.58258  -4.97313
C       2.27137  -1.22449  -5.85479
C       1.17322  -0.48111  -5.40588
C       1.14886  -0.12748  -4.04764
C       2.67208   1.72879  -1.34147
C       3.34056   2.24307  -2.46593
C       3.86012   3.54223  -2.44518
C       3.71856   4.33796  -1.30416
C       3.05516   3.82887  -0.18227
C       2.52732   2.53448  -0.19769
C       3.31880  -1.07519  -0.63238
C       4.61351  -0.59105  -0.40474
C       5.32597  -2.80498   0.28777
C       5.61234  -1.45606   0.05952
C       4.03217  -3.29006   0.05694
C       3.03107  -2.43001  -0.39770
H       4.02991  -1.52885  -2.94507
H       2.33228  -1.52925  -6.90076
H       4.15069  -2.15781  -5.33741
H       1.10750   1.62798  -7.21159
H       0.80261  -0.67921  -8.19289
H       4.84247   0.46212  -0.57639
H       6.10549  -3.47690   0.65354
H       6.61654  -1.06864   0.24615
H       3.79800  -4.34003   0.24576
H       2.01670  -2.80645  -0.54926
H       3.46031   1.63086  -3.36120
H       4.37630   3.93044  -3.32628
H       4.12390   5.35228  -1.28935
H       2.94055   4.44293   0.71371
H       2.01879   2.13580   0.68276
