          71
Mn-salen-Cy                            
Mn      0.00000   0.00000   0.00000
Cl      0.00000   0.00000  -2.46019
O       1.38023   1.31367  -0.06318
O      -0.30979  -0.00402   1.54443
O       1.36962  -1.31367  -0.12385
N      -1.45706  -1.31170  -0.29746
N      -1.42603   1.32720  -0.33014
C       1.24550   2.61492   0.05817
C      -0.03816   3.27137   0.13585
C       2.43847   3.43308   0.11486
C       2.28037   4.79667   0.36486
C       3.83625   2.82516  -0.10098
C       1.02749   5.42229   0.50603
C       4.94806   3.89354  -0.03211
C       3.89549   2.18034  -1.50933
C       4.14086   1.77179   0.99257
C       1.25561  -2.59366  -0.41051
C      -1.27890  -2.56614  -0.54693
C      -2.78188  -0.68225  -0.13930
C      -0.01251  -3.24206  -0.63833
C      -0.06602  -4.61852  -0.95615
C       2.45887  -3.39270  -0.47866
C      -1.27751   2.59620  -0.13572
C      -0.11874   4.66490   0.36337
C      -2.69017   0.71731  -0.78885
C      -3.98698  -1.45775  -0.68346
C      -3.97042   1.52574  -0.54860
C       1.09053  -5.37080  -1.03634
C       2.32639  -4.74781  -0.78891
C       3.84438  -2.78061  -0.19961
C      -5.28169  -0.65390  -0.46281
C      -5.19060   0.75019  -1.07584
C       4.97370  -3.82823  -0.29702
C       3.88006  -2.20102   1.23768
C       4.14694  -1.67340  -1.23820
H      -2.16238  -3.19886  -0.71114
H      -2.15764   3.24810  -0.22672
H      -2.91217  -0.53340   0.95015
H      -2.55122   0.55600  -1.87320
H      -1.04213  -5.07810  -1.13583
H      -1.10619   5.13255   0.41461
H      -3.83994  -1.65080  -1.76071
H      -4.07261  -2.43549  -0.18323
H      -4.08742   1.72779   0.53148
H      -3.91287   2.49960  -1.05945
H      -6.10979   1.31896  -0.86421
H      -5.11812   0.66668  -2.17445
H      -6.13438  -1.20396  -0.89116
H      -5.47625  -0.56966   0.62135
H       1.05184  -6.43286  -1.28394
H       3.22508  -5.36207  -0.84603
H       0.96979   6.49553   0.69483
H       3.17093   5.42078   0.44004
H       4.85387  -4.64412   0.43358
H       5.05023  -4.26773  -1.30415
H       5.93330  -3.33356  -0.08294
H       3.69511  -2.99320   1.98064
H       3.12749  -1.41536   1.37217
H       4.87376  -1.77049   1.44049
H       5.13382  -1.22960  -1.02991
H       4.17064  -2.09349  -2.25584
H       3.39314  -0.87940  -1.20953
H       5.00574   4.37313   0.95797
H       4.82213   4.67748  -0.79565
H       5.91740   3.40665  -0.21788
H       3.13163   1.40343  -1.63187
H       4.88595   1.72503  -1.66874
H       3.74233   2.94261  -2.28945
H       3.42267   0.94518   0.96355
H       5.15203   1.36165   0.83972
H       4.10876   2.23032   1.99384
