         192
crystal                                
C      -4.20149  -2.53677  -3.42070
C      -4.91587  -3.71849  -3.42070
C      -6.33294  -3.75118  -3.42070
H      -4.78728  -1.55872  -3.42070
H      -6.92583  -2.77723  -3.42070
C       2.23721  -1.18084  -3.42070
C       3.61781  -1.20865  -3.42070
C       4.35465  -2.41952  -3.42070
H       1.68309  -2.17717  -3.42070
H       3.80763  -3.41996  -3.42070
C      -2.15641   3.71727  -3.42070
C      -2.82262   4.92681  -3.42070
C      -2.14239   6.17037  -3.42070
H      -1.01650   3.73556  -3.42070
H      -1.00248   6.19686  -3.42070
C      14.25012   2.53654  -3.42070
C      14.96451   3.71827  -3.42070
C      16.38157   3.75096  -3.42070
H      14.83591   1.55850  -3.42070
H      16.97447   2.77701  -3.42070
C       7.81142   1.18062  -3.42070
C       6.43083   1.20843  -3.42070
C       5.69398   2.41930  -3.42070
H       8.36555   2.17695  -3.42070
H       6.24100   3.41974  -3.42070
C      12.20504  -3.71749  -3.42070
C      12.87125  -4.92703  -3.42070
C      12.19103  -6.17059  -3.42070
H      11.06513  -3.73578  -3.42070
H      11.05112  -6.19708  -3.42070
C      14.25012  -2.53676  -3.42070
C      14.96451  -3.71849  -3.42070
C      16.38157  -3.75118  -3.42070
H      14.83591  -1.55872  -3.42070
H      16.97447  -2.77723  -3.42070
C       7.81143  -1.18084  -3.42070
C       6.43083  -1.20865  -3.42070
C       5.69398  -2.41952  -3.42070
H       8.36554  -2.17717  -3.42070
H       6.24100  -3.41996  -3.42070
C      12.20504   3.71727  -3.42070
C      12.87125   4.92681  -3.42070
C      12.19103   6.17037  -3.42070
H      11.06513   3.73556  -3.42070
H      11.05112   6.19686  -3.42070
C      -4.20149   2.53654  -3.42070
C      -4.91587   3.71827  -3.42070
C      -6.33294   3.75096  -3.42070
H      -4.78728   1.55849  -3.42070
H      -6.92583   2.77701  -3.42070
C       2.23721   1.18062  -3.42070
C       3.61781   1.20843  -3.42070
C       4.35465   2.41930  -3.42070
H       1.68309   2.17695  -3.42070
H       3.80763   3.41974  -3.42070
C      -2.15641  -3.71749  -3.42070
C      -2.82262  -4.92703  -3.42070
C      -2.14239  -6.17060  -3.42070
H      -1.01649  -3.73578  -3.42070
H      -1.00248  -6.19708  -3.42070
C      -2.82530  -2.51460  -3.42070
C      -4.22222  -4.93413  -3.42070
B      -2.06044  -1.18959  -3.42070
C       1.52992  -0.00011  -3.42070
C       4.32375  -0.00011  -3.42070
B       0.00000   0.00000  -3.42070
C      -2.82530   2.51438  -3.42070
C      -4.22222   4.93390  -3.42070
B      -2.06025   1.18948  -3.42070
C      12.87394   2.51438  -3.42070
C      14.27085   4.93391  -3.42070
B      12.10888   1.18948  -3.42070
C       8.51871  -0.00011  -3.42070
C       5.72488  -0.00011  -3.42070
B      10.04864   0.00000  -3.42070
C      12.87394  -2.51460  -3.42070
C      14.27085  -4.93413  -3.42070
B      12.10907  -1.18959  -3.42070
O      -0.69347  -1.17785  -3.42070
O      -0.69366   1.17774  -3.42070
O      -2.73356  -0.00000  -3.42070
O      10.74229   1.17774  -3.42070
O      10.74210  -1.17785  -3.42070
O      12.78219   0.00000  -3.42070
C      12.86069   7.33027  -3.42070
C      17.05124  -4.91108  -3.42070
C      -2.81206  -7.33049  -3.42070
C      -7.00261   4.91085  -3.42070
C      -2.81206   7.33027  -3.42070
C      -7.00261  -4.91108  -3.42070
C      12.86069  -7.33049  -3.42070
C      17.05124   4.91086  -3.42070
C      14.97142   6.14732  -3.42070
C      14.97142  -6.14754  -3.42070
C      -4.92278  -6.14755  -3.42070
C      -4.92278   6.14732  -3.42070
C      -4.20149  -2.53677   0.00000
C      -4.91587  -3.71849  -0.00000
C      -6.33294  -3.75118  -0.00000
H      -4.78728  -1.55872  -0.00000
H      -6.92583  -2.77723  -0.00000
C       2.23721  -1.18084  -0.00000
C       3.61781  -1.20865  -0.00000
C       4.35465  -2.41952   0.00000
H       1.68309  -2.17717  -0.00000
H       3.80763  -3.41996  -0.00000
C      -2.15641   3.71727  -0.00000
C      -2.82262   4.92681  -0.00000
C      -2.14239   6.17037  -0.00000
H      -1.01650   3.73556  -0.00000
H      -1.00248   6.19686  -0.00000
C      14.25012   2.53654   0.00000
C      14.96451   3.71827  -0.00000
C      16.38157   3.75096  -0.00000
H      14.83591   1.55850   0.00000
H      16.97447   2.77701  -0.00000
C       7.81142   1.18062   0.00000
C       6.43083   1.20843  -0.00000
C       5.69398   2.41930   0.00000
H       8.36555   2.17695  -0.00000
H       6.24100   3.41974  -0.00000
C      12.20504  -3.71749   0.00000
C      12.87125  -4.92703   0.00000
C      12.19103  -6.17059  -0.00000
H      11.06513  -3.73578  -0.00000
H      11.05112  -6.19708  -0.00000
C      14.25012  -2.53676  -0.00000
C      14.96451  -3.71849  -0.00000
C      16.38157  -3.75118  -0.00000
H      14.83591  -1.55872  -0.00000
H      16.97447  -2.77723  -0.00000
C       7.81143  -1.18084  -0.00000
C       6.43083  -1.20865  -0.00000
C       5.69398  -2.41952  -0.00000
H       8.36554  -2.17717  -0.00000
H       6.24100  -3.41996   0.00000
C      12.20504   3.71727  -0.00000
C      12.87125   4.92681  -0.00000
C      12.19103   6.17037  -0.00000
H      11.06513   3.73556  -0.00000
H      11.05112   6.19686   0.00000
C      -4.20149   2.53654  -0.00000
C      -4.91587   3.71827  -0.00000
C      -6.33294   3.75096  -0.00000
H      -4.78728   1.55849  -0.00000
H      -6.92583   2.77701   0.00000
C       2.23721   1.18062  -0.00000
C       3.61781   1.20843  -0.00000
C       4.35465   2.41930  -0.00000
H       1.68309   2.17695  -0.00000
H       3.80763   3.41974  -0.00000
C      -2.15641  -3.71749  -0.00000
C      -2.82262  -4.92703  -0.00000
C      -2.14239  -6.17060   0.00000
H      -1.01649  -3.73578  -0.00000
H      -1.00248  -6.19708  -0.00000
C      -2.82530  -2.51460  -0.00000
C      -4.22222  -4.93413  -0.00000
B      -2.06044  -1.18959  -0.00000
C       1.52992  -0.00011  -0.00000
C       4.32375  -0.00011  -0.00000
B       0.00000   0.00000   0.00000
C      -2.82530   2.51438   0.00000
C      -4.22222   4.93390   0.00000
B      -2.06025   1.18948  -0.00000
C      12.87394   2.51438  -0.00000
C      14.27085   4.93391  -0.00000
B      12.10888   1.18948  -0.00000
C       8.51871  -0.00011  -0.00000
C       5.72488  -0.00011  -0.00000
B      10.04864   0.00000  -0.00000
C      12.87394  -2.51460  -0.00000
C      14.27085  -4.93413  -0.00000
B      12.10907  -1.18959  -0.00000
O      -0.69347  -1.17785  -0.00000
O      -0.69366   1.17774   0.00000
O      -2.73356  -0.00000   0.00000
O      10.74229   1.17774  -0.00000
O      10.74210  -1.17785  -0.00000
O      12.78219   0.00000  -0.00000
C      12.86069   7.33027  -0.00000
C      17.05124  -4.91108  -0.00000
C      -2.81206  -7.33049  -0.00000
C      -7.00261   4.91085  -0.00000
C      -2.81206   7.33027  -0.00000
C      -7.00261  -4.91108  -0.00000
C      12.86069  -7.33049  -0.00000
C      17.05124   4.91086  -0.00000
C      14.97142   6.14732  -0.00000
C      14.97142  -6.14754  -0.00000
C      -4.92278  -6.14755  -0.00000
C      -4.92278   6.14732  -0.00000
