112
CETHEQ_clean
Cu      0.070752   12.283092    6.491473
Cu      7.311297   13.863866   11.029886
Cu      3.690988   17.003855    7.391707
Cu      7.311338    5.091306    5.965060
Cu      3.691036    6.672040    1.426647
Cu      0.070764    9.812061    5.064826
Cu      2.898795   11.467322    5.051124
Cu      6.519078    5.832537    0.000000
Cu      6.519019   18.659116    7.405409
H       5.204421   13.365954    5.332642
H       5.582375   14.403734    6.492345
H       5.088197   14.938796    5.067318
H      -0.211861   15.033739    7.710594
H       0.419139   16.390826    7.143822
H       0.865529   15.840661    8.577569
H      12.444990   12.318854   10.671512
H      12.822934   12.804293    9.192921
H      12.328780   11.302649    9.442052
H       7.028686   13.544322    8.038201
H       7.659703   12.374934    7.146313
H       8.106069   13.891680    6.905902
H       8.824675   17.466006    8.908912
H       9.202644   15.942787    9.227800
H       8.708476   16.909368   10.403696
H       3.408417   14.572752    9.164271
H       4.039438   14.385053   10.622931
H       4.485819   13.418472    9.429596
H      12.445018    6.174178    7.123891
H      12.822960    7.211947    5.964188
H      12.328797    7.747022    7.389215
H       7.028712    7.841942    4.745939
H       7.659717    9.199034    5.312711
H       8.106093    8.648857    3.878964
H       8.824732    5.127031    1.785021
H       9.202692    5.612483    3.263612
H       8.708536    4.110837    3.014481
H       3.408455    6.352522    4.418332
H       4.039481    5.183142    5.310220
H       4.485850    6.699890    5.550631
H       5.204435   10.274198    3.547621
H       5.582401    8.750977    3.228733
H       5.088221    9.717548    2.052837
H      -0.211825    7.380942    3.292262
H       0.419182    7.193230    1.833602
H       0.865574    6.226660    3.026938
H       0.847072   12.000229    4.128095
H       4.467373    4.766714    0.000000
H       8.087682    4.808463    8.328438
C       3.607881   14.209554    6.203353
C       4.982856   14.231128    5.734988
C       1.713758   14.794250    7.019256
C       0.598351   15.583911    7.671979
C      10.848443   12.651109    9.505580
C      12.223425   12.234706    9.721078
C       8.954312   13.065352    8.591271
C       7.838902   13.235793    7.581046
C       7.228148   16.290151    9.204132
C       8.603123   16.684981    9.457000
C       5.334032   15.291212    9.302539
C       4.218637   14.331111    9.660041
C      10.848470    7.017770    6.253180
C      12.223449    7.039348    6.721545
C       8.954338    7.602459    5.437277
C       7.838924    8.392114    4.784554
C       7.228198    5.459296    2.950953
C       8.603177    5.042891    2.735455
C       5.334076    5.873547    3.865262
C       4.218676    6.043997    4.875487
C       3.607905    9.098340    3.252401
C       4.982878    9.493168    2.999533
C       1.713789    8.099401    3.153994
C       0.598390    7.139296    2.796492
N       2.784640   13.189039    6.055121
N       1.543250   13.555823    6.595734
N       2.960573   15.253804    6.818706
N      10.025197   13.032997   10.463488
N       8.783802   13.317789    9.875539
N      10.201134   12.661891    8.293560
N       6.404890   16.928777    8.394458
N       5.163506   16.277202    8.441792
N       6.580855   15.235118    9.800800
N      10.025230    5.997257    6.401412
N       8.783835    6.364035    5.860799
N      10.201155    8.062015    5.637827
N       6.404942    5.841176    1.993045
N       5.163553    6.125973    2.580994
N       6.580900    5.470089    4.162973
N       2.784656    9.736974    4.062075
N       1.543271    9.085398    4.014741
N       2.960606    8.043303    2.655733
O       0.944826   11.596773    4.826907
O       4.565114    5.573633    0.000000
O       2.402718    6.984661    0.000000
O       8.185428    4.405001    7.629626
O       6.023042    3.699482    6.407641
O      -1.217548   10.891264    6.048892
Cu     10.931552   12.283092    6.491473
Cu      3.691021    6.672028   -1.426647
Cu      7.311364    2.620287    7.391707
Cu      3.690961   19.474874    5.965060
Cu      7.311311   13.863879   13.883180
Cu     10.931564    9.812061    5.064826
Cu     10.139354   13.024376   12.456533
Cu     10.139395    4.275548    7.405409
N       6.404921    5.841158   -1.993045
N      -0.659666   12.661891    8.293560
N       6.404853   20.380825    6.401412
N      -0.659645    8.062015    5.637827
O       8.185390   12.765471   12.456533
O       6.022994   14.176499   12.456533
O       4.565052   18.788569    7.629626
O       2.402666   18.083050    6.407641
