          66
Ti-taddol                              
O       1.36335  -0.00000   1.12112
O       0.94241   0.77246   4.66463
C      -0.13333   0.38167   5.53636
Cl     -0.01852   1.86656  -1.22177
C       1.81843   0.18896   2.47364
C       0.54667   0.60547   3.30269
H       0.17988   1.55966   2.88002
C       0.44936  -0.42265   6.69225
H      -0.35908  -0.76928   7.35112
H       1.13635   0.20304   7.27950
H       0.99689  -1.29053   6.30288
C       2.43092  -1.12469   2.98036
TI      0.00000   0.00000   0.00000
C       2.19490  -2.34253   2.32422
H       1.59428  -2.36453   1.41395
C       2.75063  -3.53172   2.81190
H       2.56222  -4.46856   2.28299
C       3.54650  -3.51911   3.96030
H       3.98341  -4.44640   4.33755
C       3.79070  -2.30656   4.61606
H       4.42074  -2.28338   5.50821
C       3.24138  -1.11761   4.12891
H       3.44529  -0.17429   4.63624
C       2.87406   1.30826   2.41153
C       2.74662   2.53424   3.07944
H       1.89516   2.72175   3.73338
C       3.73320   3.52017   2.94434
H       3.62109   4.46768   3.47625
C       4.85063   3.29731   2.13721
H       5.61605   4.06922   2.03135
C       4.98296   2.07576   1.46478
H       5.85198   1.89014   0.82969
C       4.00540   1.09028   1.60434
H       4.11345   0.13959   1.07799
Cl      0.01852  -1.86656  -1.22034
O      -1.35880   0.01225   1.12338
O      -0.97833  -0.48943   4.74283
C      -1.86831  -0.15797   2.45865
C      -0.60442  -0.43958   3.36392
H      -0.22462  -1.43237   3.06281
C      -0.91656   1.60891   6.00193
H      -0.26703   2.25200   6.61349
H      -1.77931   1.30009   6.60879
H      -1.28729   2.18587   5.14477
C      -2.62521   1.11720   2.85371
C      -2.35203   2.34523   2.22938
H      -1.62060   2.39690   1.42160
C      -3.04275   3.50298   2.60667
H      -2.82345   4.44753   2.10392
C      -4.01752   3.44836   3.60733
H      -4.56157   4.35073   3.89496
C      -4.30217   2.22578   4.22607
H      -5.07041   2.16903   5.00056
C      -3.61349   1.06878   3.85125
H      -3.84645   0.11687   4.33020
C      -2.81598  -1.37091   2.40976
C      -2.73518  -2.44610   3.30641
H      -1.99713  -2.44074   4.10902
C      -3.62453  -3.52400   3.20003
H      -3.54930  -4.35303   3.90738
C      -4.59687  -3.54335   2.19799
H      -5.28494  -4.38744   2.11422
C      -4.68357  -2.47144   1.30070
H      -5.43925  -2.47565   0.51205
C      -3.80353  -1.39408   1.40853
H      -3.87503  -0.56179   0.70569
          66
Ti-taddol                              
O       1.19913  -0.00000   1.06386
O       0.51386   0.71666   4.57771
C      -0.60301   0.27794   5.37142
Cl     -0.08290   1.88652  -1.56922
C       1.55537   0.18966   2.44561
C       0.21662   0.55118   3.19076
H      -0.15539   1.49645   2.75288
C      -0.07032  -0.51822   6.55671
H      -0.90799  -0.90087   7.15647
H       0.55261   0.12482   7.19451
H       0.53321  -1.36157   6.19738
C       2.17978  -1.10703   2.98069
TI      0.00000   0.00000   0.00000
C       2.03260  -2.32497   2.29927
H       1.49555  -2.35799   1.35043
C       2.59718  -3.49909   2.81263
H       2.47876  -4.43597   2.26387
C       3.31329  -3.47121   4.01213
H       3.75728  -4.38658   4.40966
C       3.46883  -2.25826   4.69368
H       4.03639  -2.22281   5.62644
C       2.91063  -1.08416   4.18127
H       3.04571  -0.14001   4.70961
C       2.57148   1.34646   2.46482
C       2.35515   2.55945   3.13355
H       1.45553   2.70909   3.73028
C       3.31215   3.58135   3.07408
H       3.13034   4.51816   3.60568
C       4.48852   3.40760   2.34214
H       5.23081   4.20742   2.29503
C       4.70986   2.19926   1.66926
H       5.62567   2.05192   1.09255
C       3.76155   1.17807   1.73379
H       3.93906   0.23789   1.20743
Cl      0.08290  -1.88652  -1.37952
O      -1.51569  -0.08469   0.88276
O      -1.36075  -0.61361   4.51499
C      -2.10706  -0.28810   2.17907
C      -0.89730  -0.53481   3.16491
H      -0.46241  -1.50996   2.88122
C      -1.45969   1.47115   5.79410
H      -0.87638   2.12996   6.45378
H      -2.34941   1.12493   6.33865
H      -1.79283   2.04425   4.91910
C      -2.93450   0.95474   2.53361
C      -2.66481   2.19874   1.94013
H      -1.88324   2.28559   1.18397
C      -3.42082   3.32680   2.28034
H      -3.20274   4.28421   1.80199
C      -4.45785   3.22615   3.21251
H      -5.05234   4.10525   3.47087
C      -4.73880   1.98725   3.79968
H      -5.55466   1.89439   4.52010
C      -3.98502   0.85984   3.46180
H      -4.21487  -0.10514   3.91543
C      -3.00468  -1.53338   2.05557
C      -2.94521  -2.61513   2.94597
H      -2.26330  -2.59262   3.79652
C      -3.78574  -3.72273   2.77026
H      -3.72806  -4.55654   3.47362
C      -4.68737  -3.76529   1.70482
H      -5.33720  -4.63233   1.56732
C      -4.75256  -2.68702   0.81335
H      -5.45303  -2.70916  -0.02444
C      -3.92140  -1.58031   0.98989
H      -3.97577  -0.74315   0.29130
          66
Ti-taddol                              
O       1.29836   0.00000   0.46242
O       1.54060   1.86580   3.59139
C       0.50064   2.13007   4.54977
Cl      0.81945   1.90426  -2.37917
C       1.93750   0.41099   1.68499
C       0.96325   1.45186   2.35256
H       0.87217   2.30653   1.65621
C       1.12013   1.51266   5.88295
H       0.12632   1.70329   6.63466
H       1.83461   2.05263   6.25185
H       1.12238   0.47649   5.79087
C       2.15584  -0.82358   2.57141
TI      0.00000   0.00000   0.00000
C       1.47547  -2.02692   2.32967
H       0.80123  -2.11068   1.47631
C       1.67754  -3.13651   3.15961
H       1.14501  -4.06694   2.95074
C       2.55929  -3.05718   4.24064
H       2.71988  -3.92448   4.88490
C       3.26561  -1.76930   4.51698
H       3.94595  -1.79175   5.31915
C       3.04960  -0.75405   3.65419
H       3.59637   0.17071   3.84043
C       3.27894   1.04214   1.26877
C       3.64070   2.47010   1.55533
H       2.95061   3.02181   2.09134
C       4.84683   2.89148   1.07851
H       5.09992   3.93303   1.28923
C       5.73931   2.08223   0.37258
H       6.69266   2.48659   0.02537
C       5.44296   0.93167   0.18040
H       6.09239   0.10488  -0.43852
C       4.18606   0.23258   0.56115
H       3.92877  -0.80883   0.35673
Cl     -0.81945  -1.90426  -1.16968
O      -1.26227   0.92360   0.48170
O      -0.66612   1.19841   4.63862
C      -1.64739   1.33091   1.80734
C      -0.44474   0.91896   2.74552
H      -0.43653  -0.25324   2.95435
C       0.20243   3.62776   4.61538
H       1.08578   4.16459   4.99085
H      -0.64045   3.81694   5.29491
H      -0.05999   4.01914   3.62391
C      -1.91350   2.84217   1.79080
C      -1.33752   3.66905   0.81253
H      -0.72203   3.23490   0.02331
C      -1.58037   5.04776   0.81522
H      -1.13123   5.67410   0.04129
C      -2.40458   5.61700   1.79048
H      -2.59994   6.69162   1.78650
C      -2.99027   4.79722   2.76182
H      -3.64575   5.22944   3.52128
C      -2.74883   3.42059   2.76126
H      -3.21583   2.78529   3.51499
C      -2.92907   0.54733   2.14647
C      -3.09289  -0.18182   3.33308
H      -2.30641  -0.19038   4.08828
C      -4.28334  -0.88068   3.57504
H      -4.39569  -1.44258   4.50507
C      -5.31718  -0.86428   2.63653
H      -6.24158  -1.41449   2.82550
C      -5.16003  -0.13627   1.45038
H      -5.96119  -0.11670   0.70823
C      -3.97836   0.56565   1.21005
H      -3.86096   1.13053   0.28326
