          71
Ru01                                   
N       1.09586   0.00000  -2.88960
C       0.75738   0.11406  -4.30186
C      -0.75681  -0.10552  -4.30215
N      -1.09586  -0.00000  -2.88919
C       0.00000   0.00000  -2.10000
C      -2.43939  -0.06733  -2.44211
C       2.43810   0.06858  -2.43841
C      -3.17447   1.11051  -2.32212
C      -4.50064   1.04632  -1.92832
C      -5.12623  -0.17906  -1.64260
C      -4.35007  -1.34438  -1.76121
C      -3.02116  -1.29988  -2.14882
C       3.02267   1.30038  -2.15984
C       3.17140  -1.11021  -2.30679
C       4.49620  -1.04347  -1.91230
C       5.12189   0.17974  -1.61924
C       4.35285   1.34429  -1.76722
C      -2.51277   2.43309  -2.55835
C      -2.20546  -2.55396  -2.20875
C       2.50996  -2.43330  -2.54114
C       2.21336   2.55776  -2.23719
N      -6.44423  -0.23635  -1.25822
N       6.43572   0.22840  -1.17488
C       7.32292  -0.86764  -1.51500
C       7.72934  -0.90314  -2.98173
C       7.03285   1.53924  -0.98670
C       8.37905   1.52230  -0.28977
C      -7.04800  -1.46962  -0.80727
C      -7.62933  -2.31291  -1.93334
C      -7.27578   0.94477  -1.22647
C      -7.18525   1.72512   0.07779
H       1.29408  -0.63330  -4.88988
H       1.03153   1.10465  -4.68155
H      -1.03232  -1.09342  -4.68773
H      -1.29330   0.64563  -4.88555
H      -5.04022   1.97685  -1.81268
H      -4.78340  -2.31330  -1.55154
H       5.03652  -1.97479  -1.81104
H       4.78215   2.31654  -1.57144
H      -1.67567   2.56226  -1.86664
H      -3.21549   3.25393  -2.41005
H      -2.11158   2.51124  -3.57294
H      -2.81921  -3.43020  -1.99652
H      -1.74272  -2.69499  -3.18936
H      -1.39970  -2.50508  -1.47002
H       1.67577  -2.56275  -1.84577
H       3.21354  -3.25364  -2.39447
H       2.10443  -2.51224  -3.55390
H       2.83080   3.43279  -2.03078
H       1.75606   2.69186  -3.22123
H       1.40377   2.52087  -1.50187
H       8.20764  -0.79435  -0.88339
H       6.85039  -1.80766  -1.22817
H       6.85072  -0.98709  -3.62491
H       8.26590   0.00746  -3.26099
H       8.38442  -1.75486  -3.18206
H       6.34788   2.12229  -0.36676
H       7.12328   2.07861  -1.94416
H       8.66821   2.55007  -0.06045
H       9.17189   1.09300  -0.90544
H       8.33026   0.96927   0.65120
H      -7.83783  -1.20997  -0.09606
H      -6.31484  -2.04567  -0.23594
H      -8.40426  -1.75999  -2.47014
H      -6.85721  -2.58856  -2.65416
H      -8.07715  -3.22963  -1.54030
H      -8.30887   0.62523  -1.39405
H      -7.02377   1.58595  -2.07536
H      -7.83463   2.60424   0.04968
H      -6.16263   2.05708   0.26591
H      -7.49329   1.10369   0.92226
