         192
crystal                                
C       4.90792   0.00000  -3.42070
C       6.13028   0.64238  -3.42070
C       7.36027  -0.06207  -3.42070
H       4.90387  -1.14005  -3.42070
H       7.36442  -1.20228  -3.42070
C      -1.30485   2.16722  -3.42070
C      -2.47235   2.90463  -3.42070
C      -2.47727   4.32206  -3.42070
H      -0.31551   2.73374  -3.42070
H      -1.49189   4.89576  -3.42070
C      -0.07533  -4.29680  -3.42070
C      -0.13019  -5.67659  -3.42070
C      -1.35527  -6.38957  -3.42070
H      -1.06062  -3.72327  -3.42070
H      -2.34479  -5.82305  -3.42070
C     -13.51007   5.19405  -3.42070
C     -14.73243   4.55166  -3.42070
C     -15.96242   5.25612  -3.42070
H     -13.50601   6.33410  -3.42070
H     -15.96657   6.39633  -3.42070
C      -7.29730   3.02682  -3.42070
C      -6.12980   2.28942  -3.42070
C      -6.12488   0.87199  -3.42070
H      -8.28664   2.46031  -3.42070
H      -7.11025   0.29829  -3.42070
C      -8.52681   9.49085  -3.42070
C      -8.47195  10.87064  -3.42070
C      -7.24688  11.58362  -3.42070
H      -7.54153   8.91732  -3.42070
H      -6.25735  11.01710  -3.42070
C     -10.88781   9.53712  -3.42070
C     -10.88857  10.91800  -3.42070
C     -12.08478  11.67842  -3.42070
H     -11.89481   9.00263  -3.42070
H     -13.09573  11.15111  -3.42070
C      -6.07673   5.04838  -3.42070
C      -4.88047   4.35860  -3.42070
C      -3.62382   5.01432  -3.42070
H      -6.03611   6.18771  -3.42070
H      -3.57501   6.15350  -3.42070
C     -12.36963   3.12622  -3.42070
C     -13.56513   2.43513  -3.42070
C     -13.62558   1.01897  -3.42070
H     -11.40325   2.52138  -3.42070
H     -12.66343   0.40711  -3.42070
C       2.28567  -4.34307  -3.42070
C       2.28643  -5.72395  -3.42070
C       3.48263  -6.48438  -3.42070
H       3.29267  -3.80858  -3.42070
H       4.49359  -5.95706  -3.42070
C      -2.52542   0.14567  -3.42070
C      -3.72167   0.83545  -3.42070
C      -4.97832   0.17972  -3.42070
H      -2.56604  -0.99366  -3.42070
H      -5.02714  -0.95945  -3.42070
C       3.76749   2.06782  -3.42070
C       4.96298   2.75892  -3.42070
C       5.02343   4.17507  -3.42070
H       2.80110   2.67266  -3.42070
H       4.06129   4.78693  -3.42070
C       3.71836   0.69234  -3.42070
C       6.16479   2.04158  -3.42070
B       2.37873  -0.04662  -3.42070
C      -1.30965   0.79087  -3.42070
C      -3.70134   2.23492  -3.42070
B       0.00000  -0.00000  -3.42070
C       1.11902  -3.61279  -3.42070
C       1.06429  -6.40608  -3.42070
B       1.14889  -2.08315  -3.42070
C     -12.32051   4.50171  -3.42070
C     -14.76694   3.15247  -3.42070
B     -10.98077   5.24047  -3.42070
C      -7.29249   4.40318  -3.42070
C      -4.90080   2.95913  -3.42070
B      -8.60226   5.19386  -3.42070
C      -9.72117   8.80683  -3.42070
C      -9.66643  11.60012  -3.42070
B      -9.75126   7.27721  -3.42070
O       1.20245   0.64988  -3.42070
O      -0.01492  -1.36675  -3.42070
O       2.34010  -1.41290  -3.42070
O      -9.80482   4.54417  -3.42070
O      -8.58712   6.56060  -3.42070
O     -10.94236   6.60676  -3.42070
C     -14.79837   0.37216  -3.42070
C     -12.05853  13.01750  -3.42070
C       6.19622   4.82189  -3.42070
C       3.45639  -7.82345  -3.42070
C      -1.38151  -7.72864  -3.42070
C       8.53307   0.58474  -3.42070
C      -7.22064  12.92269  -3.42070
C     -17.13521   4.60931  -3.42070
C     -15.99385   2.47581  -3.42070
C      -9.63898  13.00099  -3.42070
C       7.39170   2.71824  -3.42070
C       1.03683  -7.80694  -3.42070
C       4.90792   0.00000   0.00000
C       6.13028   0.64238   0.00000
C       7.36027  -0.06207   0.00000
H       4.90387  -1.14005   0.00000
H       7.36442  -1.20228   0.00000
C      -1.30485   2.16722   0.00000
C      -2.47235   2.90463   0.00000
C      -2.47727   4.32206   0.00000
H      -0.31551   2.73374   0.00000
H      -1.49189   4.89576   0.00000
C      -0.07533  -4.29680   0.00000
C      -0.13019  -5.67659   0.00000
C      -1.35527  -6.38957   0.00000
H      -1.06062  -3.72327   0.00000
H      -2.34479  -5.82305   0.00000
C     -13.51007   5.19405   0.00000
C     -14.73243   4.55166   0.00000
C     -15.96242   5.25612   0.00000
H     -13.50601   6.33410   0.00000
H     -15.96657   6.39633   0.00000
C      -7.29730   3.02682   0.00000
C      -6.12980   2.28942   0.00000
C      -6.12488   0.87199   0.00000
H      -8.28664   2.46031   0.00000
H      -7.11025   0.29829   0.00000
C      -8.52681   9.49085   0.00000
C      -8.47195  10.87064   0.00000
C      -7.24688  11.58362   0.00000
H      -7.54153   8.91732   0.00000
H      -6.25735  11.01710   0.00000
C     -10.88781   9.53712  -0.00000
C     -10.88857  10.91800   0.00000
C     -12.08478  11.67842   0.00000
H     -11.89481   9.00263   0.00000
H     -13.09573  11.15111   0.00000
C      -6.07673   5.04838   0.00000
C      -4.88047   4.35860   0.00000
C      -3.62382   5.01432   0.00000
H      -6.03611   6.18771   0.00000
H      -3.57501   6.15350   0.00000
C     -12.36963   3.12622   0.00000
C     -13.56513   2.43513   0.00000
C     -13.62558   1.01897   0.00000
H     -11.40325   2.52138   0.00000
H     -12.66343   0.40711   0.00000
C       2.28567  -4.34307   0.00000
C       2.28643  -5.72395   0.00000
C       3.48263  -6.48438   0.00000
H       3.29267  -3.80858   0.00000
H       4.49359  -5.95706   0.00000
C      -2.52542   0.14567   0.00000
C      -3.72167   0.83545   0.00000
C      -4.97832   0.17972   0.00000
H      -2.56604  -0.99366   0.00000
H      -5.02714  -0.95945   0.00000
C       3.76749   2.06782   0.00000
C       4.96298   2.75892   0.00000
C       5.02343   4.17507   0.00000
H       2.80110   2.67266   0.00000
H       4.06129   4.78693   0.00000
C       3.71836   0.69234   0.00000
C       6.16479   2.04158   0.00000
B       2.37873  -0.04662   0.00000
C      -1.30965   0.79087   0.00000
C      -3.70134   2.23492   0.00000
B       0.00000   0.00000   0.00000
C       1.11902  -3.61279   0.00000
C       1.06429  -6.40608  -0.00000
B       1.14889  -2.08315   0.00000
C     -12.32051   4.50171   0.00000
C     -14.76694   3.15247   0.00000
B     -10.98077   5.24047   0.00000
C      -7.29249   4.40318   0.00000
C      -4.90080   2.95913   0.00000
B      -8.60226   5.19386   0.00000
C      -9.72117   8.80683  -0.00000
C      -9.66643  11.60012   0.00000
B      -9.75126   7.27721   0.00000
O       1.20245   0.64988   0.00000
O      -0.01492  -1.36675   0.00000
O       2.34010  -1.41290   0.00000
O      -9.80482   4.54417   0.00000
O      -8.58712   6.56060   0.00000
O     -10.94236   6.60676   0.00000
C     -14.79837   0.37216   0.00000
C     -12.05853  13.01750   0.00000
C       6.19622   4.82189   0.00000
C       3.45639  -7.82345   0.00000
C      -1.38151  -7.72864   0.00000
C       8.53307   0.58474   0.00000
C      -7.22064  12.92269   0.00000
C     -17.13521   4.60931   0.00000
C     -15.99385   2.47581   0.00000
C      -9.63898  13.00099   0.00000
C       7.39170   2.71824   0.00000
C       1.03683  -7.80694   0.00000
