         192
crystal                                
C      -4.20664  -0.00000   4.23822
C      -5.55167   0.00000   3.92562
C      -6.02230   0.00000   2.58859
H      -3.45853   0.00000   3.37795
H      -5.28029   0.00000   1.72284
C      -0.92041  -0.00000   9.93875
C      -0.51861  -0.00000  11.25988
C      -1.44120  -0.00000  12.33597
H      -2.03948  -0.00000   9.72101
H      -2.56197  -0.00000  12.12625
C       2.37328   0.00000   4.24253
C       3.31652   0.00000   3.23400
C       4.70973  -0.00000   3.49494
H       2.74425  -0.00000   5.32054
H       5.08849  -0.00000   4.57041
C       6.33983  -0.00000  20.20607
C       7.68486  -0.00000  20.51867
C       8.15549  -0.00000  21.85570
H       5.59173  -0.00000  21.06634
H       7.41348  -0.00000  22.72145
C       3.05360  -0.00000  14.50554
C       2.65181  -0.00000  13.18441
C       3.57440  -0.00000  12.10832
H       4.17267  -0.00000  14.72328
H       4.69516  -0.00000  12.31804
C      -0.24009  -0.00000  20.20176
C      -1.18332  -0.00000  21.21029
C      -2.57654  -0.00000  20.94935
H      -0.61105  -0.00000  19.12375
H      -2.95530  -0.00000  19.87388
C       1.51675  -0.00000  21.77973
C       0.61491   0.00000  22.82543
C       1.02338  -0.00000  24.18275
H       2.62827  -0.00000  22.03325
H       2.13319  -0.00000  24.44429
C       0.80862  -0.00000  15.23803
C       0.35394  -0.00000  13.93415
C      -1.02576  -0.00000  13.60924
H       0.03331  -0.00000  16.07386
H      -1.80717  -0.00000  14.43960
C       6.82797  -0.00000  17.89562
C       8.18450  -0.00000  18.15379
C       9.15573  -0.00000  17.12139
H       6.49177  -0.00000  16.80626
H       8.82733  -0.00000  16.02948
C       0.61644   0.00000   2.66456
C       1.51829   0.00000   1.61886
C       1.10982  -0.00000   0.26154
H      -0.49507   0.00000   2.41104
H       0.00000   0.00000   0.00000
C       1.32457   0.00000   9.20626
C       1.77925  -0.00000  10.51014
C       3.15896  -0.00000  10.83505
H       2.09988  -0.00000   8.37043
H       3.94037  -0.00000  10.00469
C      -4.69478  -0.00000   6.54867
C      -6.05131   0.00000   6.29050
C      -7.02254   0.00000   7.32290
H      -4.35858  -0.00000   7.63803
H      -6.69413   0.00000   8.41481
C      -3.75870   0.00000   5.53965
C      -6.49218   0.00000   4.96213
B      -2.26179  -0.00000   5.85579
C      -0.01731  -0.00000   8.90011
C       0.84929  -0.00000  11.55613
B      -0.49176  -0.00000   7.44561
C       1.02224  -0.00000   3.97974
C       2.88913  -0.00000   1.90123
B       0.00000  -0.00000   5.11802
C       5.89189  -0.00000  18.90464
C       8.62538  -0.00000  19.48216
B       4.39503   0.00000  18.58828
C       2.15050  -0.00000  15.54418
C       1.28390  -0.00000  12.88816
B       2.62516  -0.00000  16.99861
C       1.11095  -0.00000  20.46455
C      -0.75593  -0.00000  22.54306
B       2.13336  -0.00000  19.32641
O      -1.82661   0.00000   7.15170
O       0.41273  -0.00000   6.42085
O      -1.33966  -0.00000   4.84688
O       3.95997  -0.00000  17.29274
O       1.72052  -0.00000  18.02322
O       3.47307  -0.00000  19.59734
C      10.46613  -0.00000  17.39824
C       0.12841  -0.00000  25.17916
C      -8.33294   0.00000   7.04605
C       2.00478  -0.00000  -0.73487
C       5.60470  -0.00000   2.49852
C      -7.33270   0.00000   2.31173
C      -3.47151  -0.00000  21.94577
C       9.46589  -0.00000  22.13256
C       9.99625  -0.00000  19.77179
C      -1.69219  -0.00000  23.58546
C      -7.86305   0.00000   4.67250
C       3.82539  -0.00000   0.85883
C      -4.20664   3.42070   4.23822
C      -5.55167   3.42070   3.92562
C      -6.02230   3.42070   2.58859
H      -3.45853   3.42070   3.37795
H      -5.28029   3.42070   1.72284
C      -0.92041   3.42070   9.93875
C      -0.51861   3.42070  11.25988
C      -1.44120   3.42070  12.33597
H      -2.03948   3.42070   9.72101
H      -2.56197   3.42070  12.12625
C       2.37328   3.42070   4.24253
C       3.31652   3.42070   3.23400
C       4.70973   3.42070   3.49494
H       2.74425   3.42070   5.32054
H       5.08849   3.42070   4.57041
C       6.33983   3.42070  20.20607
C       7.68486   3.42070  20.51867
C       8.15549   3.42070  21.85570
H       5.59173   3.42070  21.06634
H       7.41348   3.42070  22.72145
C       3.05360   3.42070  14.50554
C       2.65181   3.42070  13.18441
C       3.57440   3.42070  12.10832
H       4.17267   3.42070  14.72328
H       4.69516   3.42070  12.31804
C      -0.24009   3.42070  20.20176
C      -1.18332   3.42070  21.21029
C      -2.57654   3.42070  20.94935
H      -0.61105   3.42070  19.12375
H      -2.95530   3.42070  19.87388
C       1.51675   3.42070  21.77973
C       0.61491   3.42070  22.82543
C       1.02338   3.42070  24.18275
H       2.62827   3.42070  22.03325
H       2.13319   3.42070  24.44429
C       0.80862   3.42070  15.23803
C       0.35394   3.42070  13.93415
C      -1.02576   3.42070  13.60924
H       0.03331   3.42070  16.07386
H      -1.80717   3.42070  14.43960
C       6.82797   3.42070  17.89562
C       8.18450   3.42070  18.15379
C       9.15573   3.42070  17.12139
H       6.49177   3.42070  16.80626
H       8.82733   3.42070  16.02948
C       0.61644   3.42070   2.66456
C       1.51829   3.42070   1.61886
C       1.10982   3.42070   0.26154
H      -0.49507   3.42070   2.41104
H       0.00000   3.42070   0.00000
C       1.32457   3.42070   9.20626
C       1.77925   3.42070  10.51014
C       3.15896   3.42070  10.83505
H       2.09988   3.42070   8.37043
H       3.94037   3.42070  10.00469
C      -4.69478   3.42070   6.54867
C      -6.05131   3.42070   6.29050
C      -7.02254   3.42070   7.32290
H      -4.35858   3.42070   7.63803
H      -6.69413   3.42070   8.41481
C      -3.75870   3.42070   5.53965
C      -6.49218   3.42070   4.96213
B      -2.26179   3.42070   5.85579
C      -0.01731   3.42070   8.90011
C       0.84929   3.42070  11.55613
B      -0.49176   3.42070   7.44561
C       1.02224   3.42070   3.97974
C       2.88913   3.42070   1.90123
B       0.00000   3.42070   5.11802
C       5.89189   3.42070  18.90464
C       8.62538   3.42070  19.48216
B       4.39503   3.42070  18.58828
C       2.15050   3.42070  15.54418
C       1.28390   3.42070  12.88816
B       2.62516   3.42070  16.99861
C       1.11095   3.42070  20.46455
C      -0.75593   3.42070  22.54306
B       2.13336   3.42070  19.32641
O      -1.82661   3.42070   7.15170
O       0.41273   3.42070   6.42085
O      -1.33966   3.42070   4.84688
O       3.95997   3.42070  17.29274
O       1.72052   3.42070  18.02322
O       3.47307   3.42070  19.59734
C      10.46613   3.42070  17.39824
C       0.12841   3.42070  25.17916
C      -8.33294   3.42070   7.04605
C       2.00478   3.42070  -0.73487
C       5.60470   3.42070   2.49852
C      -7.33270   3.42070   2.31173
C      -3.47151   3.42070  21.94577
C       9.46589   3.42070  22.13256
C       9.99625   3.42070  19.77179
C      -1.69219   3.42070  23.58546
C      -7.86305   3.42070   4.67250
C       3.82539   3.42070   0.85883
